src/test/resources/debug-network.xiidm
<?xml version="1.0" encoding="UTF-8"?>
<iidm:network xmlns:iidm="http://www.powsybl.org/schema/iidm/1_18" xmlns:reft="http://www.powsybl.org/schema/iidm/ext/reference_terminals/1_0" id="test" caseDate="2021-04-25T13:47:34.697+02:00" forecastDistance="0" sourceFormat="code" minimumValidationLevel="STEADY_STATE_HYPOTHESIS">
    <iidm:substation id="b1_s" country="FR">
        <iidm:voltageLevel id="b1_vl" nominalV="1.0" topologyKind="BUS_BREAKER">
            <iidm:busBreakerTopology>
                <iidm:bus id="b1" angle="1.9098593455618655"/>
            </iidm:busBreakerTopology>
            <iidm:load id="d1" loadType="UNDEFINED" p0="1.0" q0="0.0" bus="b1" connectableBus="b1" p="1.0" q="0.0"/>
        </iidm:voltageLevel>
    </iidm:substation>
    <iidm:substation id="b2_s" country="FR">
        <iidm:voltageLevel id="b2_vl" nominalV="1.0" topologyKind="BUS_BREAKER">
            <iidm:busBreakerTopology>
                <iidm:bus id="b2" angle="9.549296727809327"/>
            </iidm:busBreakerTopology>
            <iidm:generator id="g2" energySource="OTHER" minP="0.0" maxP="6.0" targetP="3.0" localTargetV="1.0" bus="b2" connectableBus="b2" p="-3.0" q="-0.0">
                <iidm:minMaxReactiveLimits minQ="-1.7976931348623157E308" maxQ="1.7976931348623157E308"/>
                <iidm:voltageRegulation mode="VOLTAGE" regulating="true"/>
            </iidm:generator>
        </iidm:voltageLevel>
    </iidm:substation>
    <iidm:substation id="b3_s" country="FR">
        <iidm:voltageLevel id="b3_vl" nominalV="1.0" topologyKind="BUS_BREAKER">
            <iidm:busBreakerTopology>
                <iidm:bus id="b3" angle="0.0"/>
            </iidm:busBreakerTopology>
            <iidm:load id="d3" loadType="UNDEFINED" p0="1.0" q0="0.0" bus="b3" connectableBus="b3" p="1.0" q="0.0"/>
        </iidm:voltageLevel>
    </iidm:substation>
    <iidm:substation id="b4_s" country="FR">
        <iidm:voltageLevel id="b4_vl" nominalV="1.0" topologyKind="BUS_BREAKER">
            <iidm:busBreakerTopology>
                <iidm:bus id="b4" angle="-5.729578036685596"/>
            </iidm:busBreakerTopology>
            <iidm:load id="d4" loadType="UNDEFINED" p0="1.0" q0="0.0" bus="b4" connectableBus="b4" p="1.0" q="0.0"/>
        </iidm:voltageLevel>
    </iidm:substation>
    <iidm:substation id="b5_s" country="FR">
        <iidm:voltageLevel id="b5_vl" nominalV="1.0" topologyKind="BUS_BREAKER">
            <iidm:busBreakerTopology>
                <iidm:bus id="b5" angle="-9.549296727809327"/>
            </iidm:busBreakerTopology>
            <iidm:load id="d5" loadType="UNDEFINED" p0="2.0" q0="0.0" bus="b5" connectableBus="b5" p="2.0" q="0.0"/>
        </iidm:voltageLevel>
    </iidm:substation>
    <iidm:substation id="b6_s" country="FR">
        <iidm:voltageLevel id="b6_vl" nominalV="1.0" topologyKind="BUS_BREAKER">
            <iidm:busBreakerTopology>
                <iidm:bus id="b6" angle="-1.909859345561864"/>
            </iidm:busBreakerTopology>
            <iidm:generator id="g6" energySource="OTHER" minP="0.0" maxP="4.0" targetP="2.0" localTargetV="1.0" bus="b6" connectableBus="b6" p="-2.0" q="-0.0">
                <iidm:minMaxReactiveLimits minQ="-1.7976931348623157E308" maxQ="1.7976931348623157E308"/>
                <iidm:voltageRegulation mode="VOLTAGE" regulating="true"/>
            </iidm:generator>
        </iidm:voltageLevel>
    </iidm:substation>
    <iidm:line id="l12" r="0.0" x="0.10000000149011612" voltageLevelId1="b1_vl" bus1="b1" connectableBus1="b1" voltageLevelId2="b2_vl" bus2="b2" connectableBus2="b2" p1="-1.3333333333333333" p2="1.3333333333333333"/>
    <iidm:line id="l13" r="0.0" x="0.10000000149011612" voltageLevelId1="b1_vl" bus1="b1" connectableBus1="b1" voltageLevelId2="b3_vl" bus2="b3" connectableBus2="b3" p1="0.3333333333333333" p2="-0.3333333333333333"/>
    <iidm:line id="l23" r="0.0" x="0.10000000149011612" voltageLevelId1="b2_vl" bus1="b2" connectableBus1="b2" voltageLevelId2="b3_vl" bus2="b3" connectableBus2="b3" p1="1.6666666666666667" p2="-1.6666666666666667"/>
    <iidm:line id="l34" r="0.0" x="0.10000000149011612" voltageLevelId1="b3_vl" bus1="b3" connectableBus1="b3" voltageLevelId2="b4_vl" bus2="b4" connectableBus2="b4" p1="0.9999999999999999" p2="-0.9999999999999999"/>
    <iidm:line id="l45" r="0.0" x="0.10000000149011612" voltageLevelId1="b4_vl" bus1="b4" connectableBus1="b4" voltageLevelId2="b5_vl" bus2="b5" connectableBus2="b5" p1="0.6666666666666666" p2="-0.6666666666666666"/>
    <iidm:line id="l46" r="0.0" x="0.10000000149011612" voltageLevelId1="b4_vl" bus1="b4" connectableBus1="b4" voltageLevelId2="b6_vl" bus2="b6" connectableBus2="b6" p1="-0.6666666666666667" p2="0.6666666666666667"/>
    <iidm:line id="l56" r="0.0" x="0.10000000149011612" voltageLevelId1="b5_vl" bus1="b5" connectableBus1="b5" voltageLevelId2="b6_vl" bus2="b6" connectableBus2="b6" p1="-1.3333333333333335" p2="1.3333333333333335"/>
    <iidm:extension id="test">
        <reft:referenceTerminals>
            <reft:referenceTerminal id="l13" side="TWO"/>
        </reft:referenceTerminals>
    </iidm:extension>
</iidm:network>
